PCB_design_3
*SPICE Netlist generated by Advanced Sim server on 2023-01-30 19:58:19
.options MixedSimGenerated

*Schematic Netlist:
VV1 Net12v regulator_1 Net2k_1 15 AC 0 0

.SAVE allV
.SAVE allI
.SAVE allP

.PROBE {V(NetU5_1,Net333_2)} =PLOT(1) =AXIS(1)

*Selected Circuit Analyses:
.TRAN 20,00n 5,000u 0 20,00n
.OP

.END